       8
 i =        1, E =       -14.9417142787
  C         5.7600494790        5.0000000019        5.2114688706
  C         4.2399505450        5.0000000019        5.2114688705
  H         3.8871373725        4.9999999971        4.2207875808
  H         3.8876913511        5.8578933999        5.7075817792
  H         3.8876913541        4.1421066008        5.7075817751
  H         6.1128626203        4.9999999971        4.2207875665
  H         6.1123086417        5.8578934123        5.7075817865
  H         6.1123086388        4.1421065883        5.7075817823
       8
 i =        2, E =       -14.9503192858
  C         5.7672753167        5.0000000019        5.2108007208
  C         4.2327247055        5.0000000020        5.2108007206
  H         3.8427195648        4.9999999974        4.2049359220
  H         3.8436958078        5.8711738448        5.7146839768
  H         3.8436958130        4.1288261554        5.7146839723
  H         6.1572804294        4.9999999974        4.2049359075
  H         6.1563041864        5.8711738576        5.7146839842
  H         6.1563041812        4.1288261425        5.7146839798
       8
 i =        3, E =       -14.9518725511
  C         5.7706609329        5.0000000018        5.2100195671
  C         4.2293390825        5.0000000021        5.2100195668
  H         3.8163650767        4.9999999979        4.1946309195
  H         3.8175966073        5.8795792304        5.7187073242
  H         3.8175966147        4.1204207694        5.7187073192
  H         6.1836349215        4.9999999978        4.1946309059
  H         6.1824033906        5.8795792422        5.7187073314
  H         6.1824033832        4.1204207572        5.7187073265
       8
 i =        4, E =       -14.9518924175
  C         5.7707990058        5.0000000019        5.2095441841
  C         4.2292010088        5.0000000021        5.2095441837
  H         3.8164902391        4.9999999981        4.1922271111
  H         3.8177080803        5.8812603153        5.7192062735
  H         3.8177080883        4.1187396843        5.7192062680
  H         6.1835097604        4.9999999980        4.1922270970
  H         6.1822919189        5.8812603277        5.7192062811
  H         6.1822919107        4.1187396715        5.7192062757
